* C:\Users\iamne\Desktop\EEE\Year1\40006_Electronics_Design_Project_1\ltspice\R1C1.asc
R1 N001 N002 1k
R2 N002 N003 1k
R3 N003 N004 1k
R4 N004 N005 1k
R5 N005 N006 1k
R6 N006 N007 1k
R7 N007 N008 1k
R8 N008 N009 1k
R9 N009 N010 1k
R10 N010 N011 1k
R11 N011 N012 1k
R12 N012 N013 1k
R13 N013 N014 1k
R14 N014 N015 1k
R15 N015 N016 1k
R16 N016 N017 1k
R17 N017 N018 1k
R18 N018 N019 1k
R19 N019 N020 1k
R20 N020 0 1k
V1 N001 0 SINE(0 0.5 1k)
.tran 0 0.01 0 0.0001
.backanno
.end
