* C:\Users\iamne\Desktop\EEE\Year1\40006_Electronics_Design_Project_1\ltspice\R1C1.asc
R1 N001 N002 1k
R2 N002 N003 1k
R3 N003 0 1k
V1 N001 0 SINE(0 0.5 1k)
.tran 0 0.01 0 0.0001
.backanno
.end
