* C:\Users\iamne\Desktop\EEE\Year1\40006_Electronics_Design_Project_1\ltspice\R1C1.asc
R1 N001 N002 1k
R2 N002 N003 1k
R3 N003 N004 1k
R4 N004 N005 1k
R5 N005 0 1k
R6 N003 N004 1k
R7 N003 N004 1k
R8 N001 N002 1k
R9 N001 N003 1k
R10 N001 N004 1K
V1 N001 0 SINE(0 0.5 1k)
.tran 0 0.01 0 0.0001
.backanno
.end
