Version 4
SHEET 1 880 680
WIRE 80 112 -16 112
WIRE 208 112 144 112
WIRE 336 112 288 112
WIRE -16 176 -16 112
WIRE -16 336 -16 256
WIRE 320 336 -16 336
WIRE 336 336 336 112
WIRE 336 336 320 336
WIRE 320 368 320 336
FLAG 320 368 0
SYMBOL res 304 96 R90
WINDOW 0 0 56 VBottom 2
WINDOW 3 32 56 VTop 2
SYMATTR InstName R1
SYMATTR Value 1k
SYMBOL voltage -16 160 R0
WINDOW 123 0 0 Left 0
WINDOW 39 0 0 Left 0
SYMATTR InstName V1
SYMATTR Value SINE(0 5 1000)
SYMBOL diode 80 128 R270
WINDOW 0 32 32 VTop 2
WINDOW 3 0 32 VBottom 2
SYMATTR InstName D1
TEXT 392 256 Left 2 !.tran 0 0.01 0 0.000001
