* C:\Users\andyh\Documents\LTspiceXVII\RparRC.asc
C1 N002 0 1n
R1 N001 0 100
R2 N001 N002 100
I1 N001 0 SINE(0 1 1k)
.tran 0 0.01 0 0.001
.backanno
.end
